data_MgMOF-74

_audit_creation_method RASPA-1.0
_audit_creation_date 2023-3-30
_audit_author_name 'Zhao Li'

_cell_length_a    26.136
_cell_length_b    26.136
_cell_length_c    6.942
_cell_angle_alpha 90
_cell_angle_beta  90
_cell_angle_gamma 120
_cell_volume      4106.7

_symmetry_cell_setting          trigonal
_symmetry_space_group_name_Hall 'P 1'
_symmetry_space_group_name_H-M  'P 1'
_symmetry_Int_Tables_number     1

_symmetry_equiv_pos_as_xyz 'x,y,z'

loop_
_atom_site_label
_atom_site_type_symbol
_atom_site_fract_x
_atom_site_fract_y
_atom_site_fract_z
_atom_site_charge
Mg1      Mg     0.641590000000     0.685140000000     0.471890000000     0          
Mg1      Mg     0.314860000000     0.956450000000     0.471890000000     0          
Mg1      Mg     0.043550000000     0.358410000000     0.471890000000     0          
Mg1      Mg     0.358410000000     0.314860000000     0.528110000000     0          
Mg1      Mg     0.685140000000     0.043550000000     0.528110000000     0          
Mg1      Mg     0.956450000000     0.641590000000     0.528110000000     0          
Mg1      Mg     0.308256666667     0.018473333333     0.805223333333     0          
Mg1      Mg     0.981526666667     0.289783333333     0.805223333333     0          
Mg1      Mg     0.710216666667     0.691743333333     0.805223333333     0          
Mg1      Mg     0.025076666667     0.648193333333     0.861443333333     0          
Mg1      Mg     0.351806666667     0.376883333333     0.861443333333     0          
Mg1      Mg     0.623116666667     0.974923333333     0.861443333333     0          
Mg1      Mg     0.974923333333     0.351806666667     0.138556666667     0          
Mg1      Mg     0.648193333333     0.623116666667     0.138556666667     0          
Mg1      Mg     0.376883333333     0.025076666667     0.138556666667     0          
Mg1      Mg     0.691743333333     0.981526666667     0.194776666667     0          
Mg1      Mg     0.018473333333     0.710216666667     0.194776666667     0          
Mg1      Mg     0.289783333333     0.308256666667     0.194776666667     0          
O1       O      0.969430000000     0.297760000000     0.360380000000     0          
O1       O      0.702240000000     0.671670000000     0.360380000000     0          
O1       O      0.328330000000     0.030570000000     0.360380000000     0          
O1       O      0.030570000000     0.702240000000     0.639620000000     0          
O1       O      0.297760000000     0.328330000000     0.639620000000     0          
O1       O      0.671670000000     0.969430000000     0.639620000000     0          
O1       O      0.636096666667     0.631093333333     0.693713333333     0          
O1       O      0.368906666667     0.005003333333     0.693713333333     0          
O1       O      0.994996666667     0.363903333333     0.693713333333     0          
O1       O      0.697236666667     0.035573333333     0.972953333333     0          
O1       O      0.964426666667     0.661663333333     0.972953333333     0          
O1       O      0.338336666667     0.302763333333     0.972953333333     0          
O1       O      0.302763333333     0.964426666667     0.027046666667     0          
O1       O      0.035573333333     0.338336666667     0.027046666667     0          
O1       O      0.661663333333     0.697236666667     0.027046666667     0          
O1       O      0.363903333333     0.368906666667     0.306286666667     0          
O1       O      0.631093333333     0.994996666667     0.306286666667     0          
O1       O      0.005003333333     0.636096666667     0.306286666667     0          
O2       O      0.927630000000     0.230480000000     0.610200000000     0          
O2       O      0.769520000000     0.697150000000     0.610200000000     0          
O2       O      0.302850000000     0.072370000000     0.610200000000     0          
O2       O      0.072370000000     0.769520000000     0.389800000000     0          
O2       O      0.230480000000     0.302850000000     0.389800000000     0          
O2       O      0.697150000000     0.927630000000     0.389800000000     0          
O2       O      0.594296666667     0.563813333333     0.943533333333     0          
O2       O      0.436186666667     0.030483333333     0.943533333333     0          
O2       O      0.969516666667     0.405703333333     0.943533333333     0          
O2       O      0.739036666667     0.102853333333     0.723133333333     0          
O2       O      0.897146666667     0.636183333333     0.723133333333     0          
O2       O      0.363816666667     0.260963333333     0.723133333333     0          
O2       O      0.260963333333     0.897146666667     0.276866666667     0          
O2       O      0.102853333333     0.363816666667     0.276866666667     0          
O2       O      0.636183333333     0.739036666667     0.276866666667     0          
O2       O      0.405703333333     0.436186666667     0.056466666667     0          
O2       O      0.563813333333     0.969516666667     0.056466666667     0          
O2       O      0.030483333333     0.594296666667     0.056466666667     0          
O3       O      0.254940000000     0.942050000000     0.673830000000     0          
O3       O      0.057950000000     0.312890000000     0.673830000000     0          
O3       O      0.687110000000     0.745060000000     0.673830000000     0          
O3       O      0.745060000000     0.057950000000     0.326170000000     0          
O3       O      0.942050000000     0.687110000000     0.326170000000     0          
O3       O      0.312890000000     0.254940000000     0.326170000000     0          
O3       O      0.921606666667     0.275383333333     0.007163333333     0          
O3       O      0.724616666667     0.646223333333     0.007163333333     0          
O3       O      0.353776666667     0.078393333333     0.007163333333     0          
O3       O      0.411726666667     0.391283333333     0.659503333333     0          
O3       O      0.608716666667     0.020443333333     0.659503333333     0          
O3       O      0.979556666667     0.588273333333     0.659503333333     0          
O3       O      0.588273333333     0.608716666667     0.340496666667     0          
O3       O      0.391283333333     0.979556666667     0.340496666667     0          
O3       O      0.020443333333     0.411726666667     0.340496666667     0          
O3       O      0.078393333333     0.724616666667     0.992836666667     0          
O3       O      0.275383333333     0.353776666667     0.992836666667     0          
O3       O      0.646223333333     0.921606666667     0.992836666667     0          
C1       C      0.926670000000     0.245800000000     0.427030000000     0          
C1       C      0.754200000000     0.680870000000     0.427030000000     0          
C1       C      0.319130000000     0.073330000000     0.427030000000     0          
C1       C      0.073330000000     0.754200000000     0.572970000000     0          
C1       C      0.245800000000     0.319130000000     0.572970000000     0          
C1       C      0.680870000000     0.926670000000     0.572970000000     0          
C1       C      0.593336666667     0.579133333333     0.760363333333     0          
C1       C      0.420866666667     0.014203333333     0.760363333333     0          
C1       C      0.985796666667     0.406663333333     0.760363333333     0          
C1       C      0.739996666667     0.087533333333     0.906303333333     0          
C1       C      0.912466666667     0.652463333333     0.906303333333     0          
C1       C      0.347536666667     0.260003333333     0.906303333333     0          
C1       C      0.260003333333     0.912466666667     0.093696666667     0          
C1       C      0.087533333333     0.347536666667     0.093696666667     0          
C1       C      0.652463333333     0.739996666667     0.093696666667     0          
C1       C      0.406663333333     0.420866666667     0.239636666667     0          
C1       C      0.579133333333     0.985796666667     0.239636666667     0          
C1       C      0.014203333333     0.593336666667     0.239636666667     0          
C2       C      0.879180000000     0.207110000000     0.290830000000     0          
C2       C      0.792890000000     0.672070000000     0.290830000000     0          
C2       C      0.327930000000     0.120820000000     0.290830000000     0          
C2       C      0.120820000000     0.792890000000     0.709170000000     0          
C2       C      0.207110000000     0.327930000000     0.709170000000     0          
C2       C      0.672070000000     0.879180000000     0.709170000000     0          
C2       C      0.545846666667     0.540443333333     0.624163333333     0          
C2       C      0.459556666667     0.005403333333     0.624163333333     0          
C2       C      0.994596666667     0.454153333333     0.624163333333     0          
C2       C      0.787486666667     0.126223333333     0.042503333333     0          
C2       C      0.873776666667     0.661263333333     0.042503333333     0          
C2       C      0.338736666667     0.212513333333     0.042503333333     0          
C2       C      0.212513333333     0.873776666667     0.957496666667     0          
C2       C      0.126223333333     0.338736666667     0.957496666667     0          
C2       C      0.661263333333     0.787486666667     0.957496666667     0          
C2       C      0.454153333333     0.459556666667     0.375836666667     0          
C2       C      0.540443333333     0.994596666667     0.375836666667     0          
C2       C      0.005403333333     0.545846666667     0.375836666667     0          
C3       C      0.212540000000     0.889260000000     0.754900000000     0          
C3       C      0.110740000000     0.323280000000     0.754900000000     0          
C3       C      0.676720000000     0.787460000000     0.754900000000     0          
C3       C      0.787460000000     0.110740000000     0.245100000000     0          
C3       C      0.889260000000     0.676720000000     0.245100000000     0          
C3       C      0.323280000000     0.212540000000     0.245100000000     0          
C3       C      0.879206666667     0.222593333333     0.088233333333     0          
C3       C      0.777406666667     0.656613333333     0.088233333333     0          
C3       C      0.343386666667     0.120793333333     0.088233333333     0          
C3       C      0.454126666667     0.444073333333     0.578433333333     0          
C3       C      0.555926666667     0.010053333333     0.578433333333     0          
C3       C      0.989946666667     0.545873333333     0.578433333333     0          
C3       C      0.545873333333     0.555926666667     0.421566666667     0          
C3       C      0.444073333333     0.989946666667     0.421566666667     0          
C3       C      0.010053333333     0.454126666667     0.421566666667     0          
C3       C      0.120793333333     0.777406666667     0.911766666667     0          
C3       C      0.222593333333     0.343386666667     0.911766666667     0          
C3       C      0.656613333333     0.879206666667     0.911766666667     0          
C4       C      0.166300000000     0.847590000000     0.635580000000     0          
C4       C      0.152410000000     0.318710000000     0.635580000000     0          
C4       C      0.681290000000     0.833700000000     0.635580000000     0          
C4       C      0.833700000000     0.152410000000     0.364420000000     0          
C4       C      0.847590000000     0.681290000000     0.364420000000     0          
C4       C      0.318710000000     0.166300000000     0.364420000000     0          
C4       C      0.832966666667     0.180923333333     0.968913333333     0          
C4       C      0.819076666667     0.652043333333     0.968913333333     0          
C4       C      0.347956666667     0.167033333333     0.968913333333     0          
C4       C      0.500366666667     0.485743333333     0.697753333333     0          
C4       C      0.514256666667     0.014623333333     0.697753333333     0          
C4       C      0.985376666667     0.499633333333     0.697753333333     0          
C4       C      0.499633333333     0.514256666667     0.302246666667     0          
C4       C      0.485743333333     0.985376666667     0.302246666667     0          
C4       C      0.014623333333     0.500366666667     0.302246666667     0          
C4       C      0.167033333333     0.819076666667     0.031086666667     0          
C4       C      0.180923333333     0.347956666667     0.031086666667     0          
C4       C      0.652043333333     0.832966666667     0.031086666667     0          
H1       H      0.165290000000     0.858030000000     0.479180000000     0          
H1       H      0.141970000000     0.307260000000     0.479180000000     0          
H1       H      0.692740000000     0.834710000000     0.479180000000     0          
H1       H      0.834710000000     0.141970000000     0.520820000000     0          
H1       H      0.858030000000     0.692740000000     0.520820000000     0          
H1       H      0.307260000000     0.165290000000     0.520820000000     0          
H1       H      0.831956666667     0.191363333333     0.812513333333     0          
H1       H      0.808636666667     0.640593333333     0.812513333333     0          
H1       H      0.359406666667     0.168043333333     0.812513333333     0          
H1       H      0.501376666667     0.475303333333     0.854153333333     0          
H1       H      0.524696666667     0.026073333333     0.854153333333     0          
H1       H      0.973926666667     0.498623333333     0.854153333333     0          
H1       H      0.498623333333     0.524696666667     0.145846666667     0          
H1       H      0.475303333333     0.973926666667     0.145846666667     0          
H1       H      0.026073333333     0.501376666667     0.145846666667     0          
H1       H      0.168043333333     0.808636666667     0.187486666667     0          
H1       H      0.191363333333     0.359406666667     0.187486666667     0          
H1       H      0.640593333333     0.831956666667     0.187486666667     0          
